It's my first a project to GIT.
New line.